
---------- Begin Simulation Statistics ----------
simSeconds                                   0.006685                       # Number of seconds simulated (Second)
simTicks                                   6685459200                       # Number of ticks simulated (Tick)
finalTick                                  6685459200                       # Number of ticks from beginning of simulation (restored from checkpoints and never reset) (Tick)
simFreq                                  1000000000000                       # The number of ticks per simulated second ((Tick/Second))
hostSeconds                                      7.80                       # Real time elapsed on the host (Second)
hostTickRate                                857233970                       # The number of ticks simulated per host second (ticks/s) ((Tick/Second))
hostMemory                                     722616                       # Number of bytes of host memory used (Byte)
simInsts                                      9773767                       # Number of instructions simulated (Count)
simOps                                       22101016                       # Number of ops (including micro ops) simulated (Count)
hostInstRate                                  1253216                       # Simulator instruction rate (inst/s) ((Count/Second))
hostOpRate                                    2833843                       # Simulator op (including micro ops) rate (op/s) ((Count/Second))
system.clk_domain.clock                           256                       # Clock period in ticks (Tick)
system.clk_domain.voltage_domain.voltage            1                       # Voltage in Volts (Volt)
system.cpu.numCycles                         26115077                       # Number of cpu cycles simulated (Cycle)
system.cpu.cpi                               2.671913                       # CPI: cycles per instruction (core level) ((Cycle/Count))
system.cpu.ipc                               0.374264                       # IPC: instructions per cycle (core level) ((Count/Cycle))
system.cpu.numWorkItemsStarted                      0                       # Number of work items this cpu started (Count)
system.cpu.numWorkItemsCompleted                    0                       # Number of work items this cpu completed (Count)
system.cpu.commitStats0.numInsts              9773925                       # Number of instructions committed (thread level) (Count)
system.cpu.commitStats0.numOps               22101434                       # Number of ops (including micro ops) committed (thread level) (Count)
system.cpu.commitStats0.numInstsNotNOP              0                       # Number of instructions committed excluding NOPs or prefetches (Count)
system.cpu.commitStats0.numOpsNotNOP                0                       # Number of Ops (including micro ops) Simulated (Count)
system.cpu.commitStats0.cpi                  2.671913                       # CPI: cycles per instruction (thread level) ((Cycle/Count))
system.cpu.commitStats0.ipc                  0.374264                       # IPC: instructions per cycle (thread level) ((Count/Cycle))
system.cpu.commitStats0.numMemRefs                  0                       # Number of memory references committed (Count)
system.cpu.commitStats0.numFpInsts           10665354                       # Number of float instructions (Count)
system.cpu.commitStats0.numIntInsts          17789475                       # Number of integer instructions (Count)
system.cpu.commitStats0.numLoadInsts          4720419                       # Number of load instructions (Count)
system.cpu.commitStats0.numStoreInsts         2340190                       # Number of store instructions (Count)
system.cpu.commitStats0.numVecInsts                 0                       # Number of vector instructions (Count)
system.cpu.commitStats0.committedInstType::No_OpClass        30430      0.14%      0.14% # Class of committed instruction. (Count)
system.cpu.commitStats0.committedInstType::IntAlu     10712812     48.47%     48.61% # Class of committed instruction. (Count)
system.cpu.commitStats0.committedInstType::IntMult           40      0.00%     48.61% # Class of committed instruction. (Count)
system.cpu.commitStats0.committedInstType::IntDiv        37873      0.17%     48.78% # Class of committed instruction. (Count)
system.cpu.commitStats0.committedInstType::FloatAdd        22053      0.10%     48.88% # Class of committed instruction. (Count)
system.cpu.commitStats0.committedInstType::FloatCmp            0      0.00%     48.88% # Class of committed instruction. (Count)
system.cpu.commitStats0.committedInstType::FloatCvt         1248      0.01%     48.89% # Class of committed instruction. (Count)
system.cpu.commitStats0.committedInstType::FloatMult            0      0.00%     48.89% # Class of committed instruction. (Count)
system.cpu.commitStats0.committedInstType::FloatMultAcc            0      0.00%     48.89% # Class of committed instruction. (Count)
system.cpu.commitStats0.committedInstType::FloatDiv            0      0.00%     48.89% # Class of committed instruction. (Count)
system.cpu.commitStats0.committedInstType::FloatMisc            0      0.00%     48.89% # Class of committed instruction. (Count)
system.cpu.commitStats0.committedInstType::FloatSqrt            0      0.00%     48.89% # Class of committed instruction. (Count)
system.cpu.commitStats0.committedInstType::SimdAdd         6090      0.03%     48.91% # Class of committed instruction. (Count)
system.cpu.commitStats0.committedInstType::SimdAddAcc            0      0.00%     48.91% # Class of committed instruction. (Count)
system.cpu.commitStats0.committedInstType::SimdAlu        11411      0.05%     48.96% # Class of committed instruction. (Count)
system.cpu.commitStats0.committedInstType::SimdCmp            0      0.00%     48.96% # Class of committed instruction. (Count)
system.cpu.commitStats0.committedInstType::SimdCvt        12010      0.05%     49.02% # Class of committed instruction. (Count)
system.cpu.commitStats0.committedInstType::SimdMisc        11755      0.05%     49.07% # Class of committed instruction. (Count)
system.cpu.commitStats0.committedInstType::SimdMult            0      0.00%     49.07% # Class of committed instruction. (Count)
system.cpu.commitStats0.committedInstType::SimdMultAcc            0      0.00%     49.07% # Class of committed instruction. (Count)
system.cpu.commitStats0.committedInstType::SimdMatMultAcc            0      0.00%     49.07% # Class of committed instruction. (Count)
system.cpu.commitStats0.committedInstType::SimdShift          798      0.00%     49.08% # Class of committed instruction. (Count)
system.cpu.commitStats0.committedInstType::SimdShiftAcc            0      0.00%     49.08% # Class of committed instruction. (Count)
system.cpu.commitStats0.committedInstType::SimdDiv            0      0.00%     49.08% # Class of committed instruction. (Count)
system.cpu.commitStats0.committedInstType::SimdSqrt            0      0.00%     49.08% # Class of committed instruction. (Count)
system.cpu.commitStats0.committedInstType::SimdFloatAdd      2097152      9.49%     58.56% # Class of committed instruction. (Count)
system.cpu.commitStats0.committedInstType::SimdFloatAlu            0      0.00%     58.56% # Class of committed instruction. (Count)
system.cpu.commitStats0.committedInstType::SimdFloatCmp            0      0.00%     58.56% # Class of committed instruction. (Count)
system.cpu.commitStats0.committedInstType::SimdFloatCvt            1      0.00%     58.56% # Class of committed instruction. (Count)
system.cpu.commitStats0.committedInstType::SimdFloatDiv            0      0.00%     58.56% # Class of committed instruction. (Count)
system.cpu.commitStats0.committedInstType::SimdFloatMisc            0      0.00%     58.56% # Class of committed instruction. (Count)
system.cpu.commitStats0.committedInstType::SimdFloatMult      2097152      9.49%     68.05% # Class of committed instruction. (Count)
system.cpu.commitStats0.committedInstType::SimdFloatMultAcc            0      0.00%     68.05% # Class of committed instruction. (Count)
system.cpu.commitStats0.committedInstType::SimdFloatMatMultAcc            0      0.00%     68.05% # Class of committed instruction. (Count)
system.cpu.commitStats0.committedInstType::SimdFloatSqrt            0      0.00%     68.05% # Class of committed instruction. (Count)
system.cpu.commitStats0.committedInstType::SimdReduceAdd            0      0.00%     68.05% # Class of committed instruction. (Count)
system.cpu.commitStats0.committedInstType::SimdReduceAlu            0      0.00%     68.05% # Class of committed instruction. (Count)
system.cpu.commitStats0.committedInstType::SimdReduceCmp            0      0.00%     68.05% # Class of committed instruction. (Count)
system.cpu.commitStats0.committedInstType::SimdFloatReduceAdd            0      0.00%     68.05% # Class of committed instruction. (Count)
system.cpu.commitStats0.committedInstType::SimdFloatReduceCmp            0      0.00%     68.05% # Class of committed instruction. (Count)
system.cpu.commitStats0.committedInstType::SimdAes            0      0.00%     68.05% # Class of committed instruction. (Count)
system.cpu.commitStats0.committedInstType::SimdAesMix            0      0.00%     68.05% # Class of committed instruction. (Count)
system.cpu.commitStats0.committedInstType::SimdSha1Hash            0      0.00%     68.05% # Class of committed instruction. (Count)
system.cpu.commitStats0.committedInstType::SimdSha1Hash2            0      0.00%     68.05% # Class of committed instruction. (Count)
system.cpu.commitStats0.committedInstType::SimdSha256Hash            0      0.00%     68.05% # Class of committed instruction. (Count)
system.cpu.commitStats0.committedInstType::SimdSha256Hash2            0      0.00%     68.05% # Class of committed instruction. (Count)
system.cpu.commitStats0.committedInstType::SimdShaSigma2            0      0.00%     68.05% # Class of committed instruction. (Count)
system.cpu.commitStats0.committedInstType::SimdShaSigma3            0      0.00%     68.05% # Class of committed instruction. (Count)
system.cpu.commitStats0.committedInstType::SimdPredAlu            0      0.00%     68.05% # Class of committed instruction. (Count)
system.cpu.commitStats0.committedInstType::Matrix            0      0.00%     68.05% # Class of committed instruction. (Count)
system.cpu.commitStats0.committedInstType::MatrixMov            0      0.00%     68.05% # Class of committed instruction. (Count)
system.cpu.commitStats0.committedInstType::MatrixOP            0      0.00%     68.05% # Class of committed instruction. (Count)
system.cpu.commitStats0.committedInstType::MemRead       494371      2.24%     70.29% # Class of committed instruction. (Count)
system.cpu.commitStats0.committedInstType::MemWrite       180268      0.82%     71.11% # Class of committed instruction. (Count)
system.cpu.commitStats0.committedInstType::FloatMemRead      4226048     19.12%     90.23% # Class of committed instruction. (Count)
system.cpu.commitStats0.committedInstType::FloatMemWrite      2159922      9.77%    100.00% # Class of committed instruction. (Count)
system.cpu.commitStats0.committedInstType::IprAccess            0      0.00%    100.00% # Class of committed instruction. (Count)
system.cpu.commitStats0.committedInstType::InstPrefetch            0      0.00%    100.00% # Class of committed instruction. (Count)
system.cpu.commitStats0.committedInstType::VectorUnitStrideLoad            0      0.00%    100.00% # Class of committed instruction. (Count)
system.cpu.commitStats0.committedInstType::VectorUnitStrideStore            0      0.00%    100.00% # Class of committed instruction. (Count)
system.cpu.commitStats0.committedInstType::VectorUnitStrideMaskLoad            0      0.00%    100.00% # Class of committed instruction. (Count)
system.cpu.commitStats0.committedInstType::VectorUnitStrideMaskStore            0      0.00%    100.00% # Class of committed instruction. (Count)
system.cpu.commitStats0.committedInstType::VectorStridedLoad            0      0.00%    100.00% # Class of committed instruction. (Count)
system.cpu.commitStats0.committedInstType::VectorStridedStore            0      0.00%    100.00% # Class of committed instruction. (Count)
system.cpu.commitStats0.committedInstType::VectorIndexedLoad            0      0.00%    100.00% # Class of committed instruction. (Count)
system.cpu.commitStats0.committedInstType::VectorIndexedStore            0      0.00%    100.00% # Class of committed instruction. (Count)
system.cpu.commitStats0.committedInstType::VectorUnitStrideFaultOnlyFirstLoad            0      0.00%    100.00% # Class of committed instruction. (Count)
system.cpu.commitStats0.committedInstType::VectorWholeRegisterLoad            0      0.00%    100.00% # Class of committed instruction. (Count)
system.cpu.commitStats0.committedInstType::VectorWholeRegisterStore            0      0.00%    100.00% # Class of committed instruction. (Count)
system.cpu.commitStats0.committedInstType::VectorIntegerArith            0      0.00%    100.00% # Class of committed instruction. (Count)
system.cpu.commitStats0.committedInstType::VectorFloatArith            0      0.00%    100.00% # Class of committed instruction. (Count)
system.cpu.commitStats0.committedInstType::VectorFloatConvert            0      0.00%    100.00% # Class of committed instruction. (Count)
system.cpu.commitStats0.committedInstType::VectorIntegerReduce            0      0.00%    100.00% # Class of committed instruction. (Count)
system.cpu.commitStats0.committedInstType::VectorFloatReduce            0      0.00%    100.00% # Class of committed instruction. (Count)
system.cpu.commitStats0.committedInstType::VectorMisc            0      0.00%    100.00% # Class of committed instruction. (Count)
system.cpu.commitStats0.committedInstType::VectorIntegerExtension            0      0.00%    100.00% # Class of committed instruction. (Count)
system.cpu.commitStats0.committedInstType::VectorConfig            0      0.00%    100.00% # Class of committed instruction. (Count)
system.cpu.commitStats0.committedInstType::total     22101434                       # Class of committed instruction. (Count)
system.cpu.commitStats0.committedControl::IsControl      1430790                       # Class of control type instructions committed (Count)
system.cpu.commitStats0.committedControl::IsDirectControl      1413954                       # Class of control type instructions committed (Count)
system.cpu.commitStats0.committedControl::IsIndirectControl        16647                       # Class of control type instructions committed (Count)
system.cpu.commitStats0.committedControl::IsCondControl      1386030                       # Class of control type instructions committed (Count)
system.cpu.commitStats0.committedControl::IsUncondControl        44571                       # Class of control type instructions committed (Count)
system.cpu.commitStats0.committedControl::IsCall        11270                       # Class of control type instructions committed (Count)
system.cpu.commitStats0.committedControl::IsReturn        11266                       # Class of control type instructions committed (Count)
system.cpu.exec_context.thread_0.numMatAluAccesses            0                       # Number of matrix alu accesses (Count)
system.cpu.exec_context.thread_0.numCallsReturns        22536                       # Number of times a function call or return occured (Count)
system.cpu.exec_context.thread_0.numMatInsts            0                       # Number of matrix instructions (Count)
system.cpu.exec_context.thread_0.numIdleCycles     0.003906                       # Number of idle cycles (Cycle)
system.cpu.exec_context.thread_0.numBusyCycles 26115076.996094                       # Number of busy cycles (Cycle)
system.cpu.exec_context.thread_0.notIdleFraction     1.000000                       # Percentage of non-idle cycles (Ratio)
system.cpu.exec_context.thread_0.idleFraction     0.000000                       # Percentage of idle cycles (Ratio)
system.cpu.executeStats0.numInsts                   0                       # Number of executed instructions (Count)
system.cpu.executeStats0.numNop                     0                       # Number of nop insts executed (Count)
system.cpu.executeStats0.numBranches                0                       # Number of branches executed (Count)
system.cpu.executeStats0.numLoadInsts               0                       # Number of load instructions executed (Count)
system.cpu.executeStats0.numStoreInsts        7060609                       # Number of stores executed (Count)
system.cpu.executeStats0.instRate                   0                       # Inst execution rate ((Count/Cycle))
system.cpu.executeStats0.numFpAluAccesses     10665354                       # Number of float alu accesses (Count)
system.cpu.executeStats0.numFpRegReads       14875021                       # Number of times the floating registers were read (Count)
system.cpu.executeStats0.numFpRegWrites       8498015                       # Number of times the floating registers were written (Count)
system.cpu.executeStats0.numIntAluAccesses     17789475                       # Number of integer alu accesses (Count)
system.cpu.executeStats0.numIntRegReads      24899604                       # Number of times the integer registers were read (Count)
system.cpu.executeStats0.numIntRegWrites      8504661                       # Number of times the integer registers were written (Count)
system.cpu.executeStats0.numMemRefs           7060609                       # Number of memory refs (Count)
system.cpu.executeStats0.numMiscRegReads      9904179                       # Number of times the Misc registers were read (Count)
system.cpu.executeStats0.numMiscRegWrites          702                       # Number of times the Misc registers were written (Count)
system.cpu.executeStats0.numVecAluAccesses            0                       # Number of vector alu accesses (Count)
system.cpu.executeStats0.numDiscardedOps            0                       # Number of ops (including micro ops) which were discarded before commit (Count)
system.cpu.fetchStats0.numInsts               9773925                       # Number of instructions fetched (thread level) (Count)
system.cpu.fetchStats0.numOps                22101434                       # Number of ops (including micro ops) fetched (thread level) (Count)
system.cpu.fetchStats0.fetchRate             0.374264                       # Number of inst fetches per cycle ((Count/Cycle))
system.cpu.fetchStats0.numBranches            1430790                       # Number of branches fetched (Count)
system.cpu.fetchStats0.branchRate            0.054788                       # Number of branch fetches per cycle (Ratio)
system.cpu.fetchStats0.numFetchSuspends             0                       # Number of times Execute suspended instruction fetching (Count)
system.cpu.interrupts.clk_domain.clock           4096                       # Clock period in ticks (Tick)
system.cpu.mmu.dtb.rdAccesses                 4720445                       # TLB accesses on read requests (Count)
system.cpu.mmu.dtb.wrAccesses                 2340202                       # TLB accesses on write requests (Count)
system.cpu.mmu.dtb.rdMisses                      1850                       # TLB misses on read requests (Count)
system.cpu.mmu.dtb.wrMisses                       140                       # TLB misses on write requests (Count)
system.cpu.mmu.dtb.walker.power_state.pwrStateResidencyTicks::UNDEFINED   6685459200                       # Cumulative time (in ticks) in various power states (Tick)
system.cpu.mmu.itb.rdAccesses                       0                       # TLB accesses on read requests (Count)
system.cpu.mmu.itb.wrAccesses                13787828                       # TLB accesses on write requests (Count)
system.cpu.mmu.itb.rdMisses                         0                       # TLB misses on read requests (Count)
system.cpu.mmu.itb.wrMisses                       402                       # TLB misses on write requests (Count)
system.cpu.mmu.itb.walker.power_state.pwrStateResidencyTicks::UNDEFINED   6685459200                       # Cumulative time (in ticks) in various power states (Tick)
system.cpu.power_state.pwrStateResidencyTicks::ON   6685459200                       # Cumulative time (in ticks) in various power states (Tick)
system.cpu.thread_0.numInsts                        0                       # Number of Instructions committed (Count)
system.cpu.thread_0.numOps                          0                       # Number of Ops committed (Count)
system.cpu.thread_0.numMemRefs                      0                       # Number of Memory References (Count)
system.cpu.workload.numSyscalls                    67                       # Number of system calls (Count)
system.dcache.demandHits::cpu.data            6770508                       # number of demand (read+write) hits (Count)
system.dcache.demandHits::total               6770508                       # number of demand (read+write) hits (Count)
system.dcache.overallHits::cpu.data           6770508                       # number of overall hits (Count)
system.dcache.overallHits::total              6770508                       # number of overall hits (Count)
system.dcache.demandMisses::cpu.data           289786                       # number of demand (read+write) misses (Count)
system.dcache.demandMisses::total              289786                       # number of demand (read+write) misses (Count)
system.dcache.overallMisses::cpu.data          289786                       # number of overall misses (Count)
system.dcache.overallMisses::total             289786                       # number of overall misses (Count)
system.dcache.demandAccesses::cpu.data        7060294                       # number of demand (read+write) accesses (Count)
system.dcache.demandAccesses::total           7060294                       # number of demand (read+write) accesses (Count)
system.dcache.overallAccesses::cpu.data       7060294                       # number of overall (read+write) accesses (Count)
system.dcache.overallAccesses::total          7060294                       # number of overall (read+write) accesses (Count)
system.dcache.demandMissRate::cpu.data       0.041044                       # miss rate for demand accesses (Ratio)
system.dcache.demandMissRate::total          0.041044                       # miss rate for demand accesses (Ratio)
system.dcache.overallMissRate::cpu.data      0.041044                       # miss rate for overall accesses (Ratio)
system.dcache.overallMissRate::total         0.041044                       # miss rate for overall accesses (Ratio)
system.dcache.blockedCycles::no_mshrs               0                       # number of cycles access was blocked (Cycle)
system.dcache.blockedCycles::no_targets             0                       # number of cycles access was blocked (Cycle)
system.dcache.blockedCauses::no_mshrs               0                       # number of times access was blocked (Count)
system.dcache.blockedCauses::no_targets             0                       # number of times access was blocked (Count)
system.dcache.avgBlocked::no_mshrs                nan                       # average number of cycles each access was blocked ((Cycle/Count))
system.dcache.avgBlocked::no_targets              nan                       # average number of cycles each access was blocked ((Cycle/Count))
system.dcache.writebacks::writebacks           276168                       # number of writebacks (Count)
system.dcache.writebacks::total                276168                       # number of writebacks (Count)
system.dcache.replacements                     289275                       # number of replacements (Count)
system.dcache.LockedRMWReadReq.misses::cpu.data            1                       # number of LockedRMWReadReq misses (Count)
system.dcache.LockedRMWReadReq.misses::total            1                       # number of LockedRMWReadReq misses (Count)
system.dcache.LockedRMWReadReq.accesses::cpu.data            1                       # number of LockedRMWReadReq accesses(hits+misses) (Count)
system.dcache.LockedRMWReadReq.accesses::total            1                       # number of LockedRMWReadReq accesses(hits+misses) (Count)
system.dcache.LockedRMWReadReq.missRate::cpu.data            1                       # miss rate for LockedRMWReadReq accesses (Ratio)
system.dcache.LockedRMWReadReq.missRate::total            1                       # miss rate for LockedRMWReadReq accesses (Ratio)
system.dcache.LockedRMWWriteReq.hits::cpu.data            1                       # number of LockedRMWWriteReq hits (Count)
system.dcache.LockedRMWWriteReq.hits::total            1                       # number of LockedRMWWriteReq hits (Count)
system.dcache.LockedRMWWriteReq.accesses::cpu.data            1                       # number of LockedRMWWriteReq accesses(hits+misses) (Count)
system.dcache.LockedRMWWriteReq.accesses::total            1                       # number of LockedRMWWriteReq accesses(hits+misses) (Count)
system.dcache.ReadReq.hits::cpu.data          4438944                       # number of ReadReq hits (Count)
system.dcache.ReadReq.hits::total             4438944                       # number of ReadReq hits (Count)
system.dcache.ReadReq.misses::cpu.data         281178                       # number of ReadReq misses (Count)
system.dcache.ReadReq.misses::total            281178                       # number of ReadReq misses (Count)
system.dcache.ReadReq.accesses::cpu.data      4720122                       # number of ReadReq accesses(hits+misses) (Count)
system.dcache.ReadReq.accesses::total         4720122                       # number of ReadReq accesses(hits+misses) (Count)
system.dcache.ReadReq.missRate::cpu.data     0.059570                       # miss rate for ReadReq accesses (Ratio)
system.dcache.ReadReq.missRate::total        0.059570                       # miss rate for ReadReq accesses (Ratio)
system.dcache.WriteReq.hits::cpu.data         2331564                       # number of WriteReq hits (Count)
system.dcache.WriteReq.hits::total            2331564                       # number of WriteReq hits (Count)
system.dcache.WriteReq.misses::cpu.data          8608                       # number of WriteReq misses (Count)
system.dcache.WriteReq.misses::total             8608                       # number of WriteReq misses (Count)
system.dcache.WriteReq.accesses::cpu.data      2340172                       # number of WriteReq accesses(hits+misses) (Count)
system.dcache.WriteReq.accesses::total        2340172                       # number of WriteReq accesses(hits+misses) (Count)
system.dcache.WriteReq.missRate::cpu.data     0.003678                       # miss rate for WriteReq accesses (Ratio)
system.dcache.WriteReq.missRate::total       0.003678                       # miss rate for WriteReq accesses (Ratio)
system.dcache.power_state.pwrStateResidencyTicks::UNDEFINED   6685459200                       # Cumulative time (in ticks) in various power states (Tick)
system.dcache.tags.tagsInUse               511.502885                       # Average ticks per tags in use ((Tick/Count))
system.dcache.tags.totalRefs                  7060296                       # Total number of references to valid blocks. (Count)
system.dcache.tags.sampledRefs                 289787                       # Sample count of references to valid blocks. (Count)
system.dcache.tags.avgRefs                  24.363743                       # Average number of references to valid blocks. ((Count/Count))
system.dcache.tags.warmupTick                     768                       # The tick when the warmup percentage was hit. (Tick)
system.dcache.tags.occupancies::cpu.data   511.502885                       # Average occupied blocks per tick, per requestor ((Count/Tick))
system.dcache.tags.avgOccs::cpu.data         0.999029                       # Average percentage of cache occupancy ((Ratio/Tick))
system.dcache.tags.avgOccs::total            0.999029                       # Average percentage of cache occupancy ((Ratio/Tick))
system.dcache.tags.occupanciesTaskId::1024          512                       # Occupied blocks per task id (Count)
system.dcache.tags.ageTaskId_1024::0              252                       # Occupied blocks per task id, per block age (Count)
system.dcache.tags.ageTaskId_1024::1              259                       # Occupied blocks per task id, per block age (Count)
system.dcache.tags.ageTaskId_1024::2                1                       # Occupied blocks per task id, per block age (Count)
system.dcache.tags.ratioOccsTaskId::1024            1                       # Ratio of occupied blocks and all blocks, per task id (Ratio)
system.dcache.tags.tagAccesses               56772155                       # Number of tag accesses (Count)
system.dcache.tags.dataAccesses              56772155                       # Number of data accesses (Count)
system.dcache.tags.power_state.pwrStateResidencyTicks::UNDEFINED   6685459200                       # Cumulative time (in ticks) in various power states (Tick)
system.icache.demandHits::cpu.inst           13785915                       # number of demand (read+write) hits (Count)
system.icache.demandHits::total              13785915                       # number of demand (read+write) hits (Count)
system.icache.overallHits::cpu.inst          13785915                       # number of overall hits (Count)
system.icache.overallHits::total             13785915                       # number of overall hits (Count)
system.icache.demandMisses::cpu.inst             1794                       # number of demand (read+write) misses (Count)
system.icache.demandMisses::total                1794                       # number of demand (read+write) misses (Count)
system.icache.overallMisses::cpu.inst            1794                       # number of overall misses (Count)
system.icache.overallMisses::total               1794                       # number of overall misses (Count)
system.icache.demandAccesses::cpu.inst       13787709                       # number of demand (read+write) accesses (Count)
system.icache.demandAccesses::total          13787709                       # number of demand (read+write) accesses (Count)
system.icache.overallAccesses::cpu.inst      13787709                       # number of overall (read+write) accesses (Count)
system.icache.overallAccesses::total         13787709                       # number of overall (read+write) accesses (Count)
system.icache.demandMissRate::cpu.inst       0.000130                       # miss rate for demand accesses (Ratio)
system.icache.demandMissRate::total          0.000130                       # miss rate for demand accesses (Ratio)
system.icache.overallMissRate::cpu.inst      0.000130                       # miss rate for overall accesses (Ratio)
system.icache.overallMissRate::total         0.000130                       # miss rate for overall accesses (Ratio)
system.icache.blockedCycles::no_mshrs               0                       # number of cycles access was blocked (Cycle)
system.icache.blockedCycles::no_targets             0                       # number of cycles access was blocked (Cycle)
system.icache.blockedCauses::no_mshrs               0                       # number of times access was blocked (Count)
system.icache.blockedCauses::no_targets             0                       # number of times access was blocked (Count)
system.icache.avgBlocked::no_mshrs                nan                       # average number of cycles each access was blocked ((Cycle/Count))
system.icache.avgBlocked::no_targets              nan                       # average number of cycles each access was blocked ((Cycle/Count))
system.icache.writebacks::writebacks             1282                       # number of writebacks (Count)
system.icache.writebacks::total                  1282                       # number of writebacks (Count)
system.icache.replacements                       1282                       # number of replacements (Count)
system.icache.ReadReq.hits::cpu.inst         13785915                       # number of ReadReq hits (Count)
system.icache.ReadReq.hits::total            13785915                       # number of ReadReq hits (Count)
system.icache.ReadReq.misses::cpu.inst           1794                       # number of ReadReq misses (Count)
system.icache.ReadReq.misses::total              1794                       # number of ReadReq misses (Count)
system.icache.ReadReq.accesses::cpu.inst     13787709                       # number of ReadReq accesses(hits+misses) (Count)
system.icache.ReadReq.accesses::total        13787709                       # number of ReadReq accesses(hits+misses) (Count)
system.icache.ReadReq.missRate::cpu.inst     0.000130                       # miss rate for ReadReq accesses (Ratio)
system.icache.ReadReq.missRate::total        0.000130                       # miss rate for ReadReq accesses (Ratio)
system.icache.power_state.pwrStateResidencyTicks::UNDEFINED   6685459200                       # Cumulative time (in ticks) in various power states (Tick)
system.icache.tags.tagsInUse               510.056478                       # Average ticks per tags in use ((Tick/Count))
system.icache.tags.totalRefs                 13787709                       # Total number of references to valid blocks. (Count)
system.icache.tags.sampledRefs                   1794                       # Sample count of references to valid blocks. (Count)
system.icache.tags.avgRefs                7685.456522                       # Average number of references to valid blocks. ((Count/Count))
system.icache.tags.warmupTick                       0                       # The tick when the warmup percentage was hit. (Tick)
system.icache.tags.occupancies::cpu.inst   510.056478                       # Average occupied blocks per tick, per requestor ((Count/Tick))
system.icache.tags.avgOccs::cpu.inst         0.996204                       # Average percentage of cache occupancy ((Ratio/Tick))
system.icache.tags.avgOccs::total            0.996204                       # Average percentage of cache occupancy ((Ratio/Tick))
system.icache.tags.occupanciesTaskId::1024          512                       # Occupied blocks per task id (Count)
system.icache.tags.ageTaskId_1024::0              241                       # Occupied blocks per task id, per block age (Count)
system.icache.tags.ageTaskId_1024::1              102                       # Occupied blocks per task id, per block age (Count)
system.icache.tags.ageTaskId_1024::3              169                       # Occupied blocks per task id, per block age (Count)
system.icache.tags.ratioOccsTaskId::1024            1                       # Ratio of occupied blocks and all blocks, per task id (Ratio)
system.icache.tags.tagAccesses              110303466                       # Number of tag accesses (Count)
system.icache.tags.dataAccesses             110303466                       # Number of data accesses (Count)
system.icache.tags.power_state.pwrStateResidencyTicks::UNDEFINED   6685459200                       # Cumulative time (in ticks) in various power states (Tick)
system.l2bus.transDist::ReadResp               282972                       # Transaction distribution (Count)
system.l2bus.transDist::WritebackDirty         276168                       # Transaction distribution (Count)
system.l2bus.transDist::WritebackClean           1282                       # Transaction distribution (Count)
system.l2bus.transDist::CleanEvict              13107                       # Transaction distribution (Count)
system.l2bus.transDist::ReadExReq                8609                       # Transaction distribution (Count)
system.l2bus.transDist::ReadExResp               8609                       # Transaction distribution (Count)
system.l2bus.transDist::ReadCleanReq             1794                       # Transaction distribution (Count)
system.l2bus.transDist::ReadSharedReq          281178                       # Transaction distribution (Count)
system.l2bus.pktCount_system.icache.mem_side_port::system.l2cache.cpu_side_port         4870                       # Packet count per connected requestor and responder (Count)
system.l2bus.pktCount_system.dcache.mem_side_port::system.l2cache.cpu_side_port       868849                       # Packet count per connected requestor and responder (Count)
system.l2bus.pktCount::total                   873719                       # Packet count per connected requestor and responder (Count)
system.l2bus.pktSize_system.icache.mem_side_port::system.l2cache.cpu_side_port       196864                       # Cumulative packet size per connected requestor and responder (Byte)
system.l2bus.pktSize_system.dcache.mem_side_port::system.l2cache.cpu_side_port     36221120                       # Cumulative packet size per connected requestor and responder (Byte)
system.l2bus.pktSize::total                  36417984                       # Cumulative packet size per connected requestor and responder (Byte)
system.l2bus.snoops                             10789                       # Total snoops (Count)
system.l2bus.snoopTraffic                      113664                       # Total snoop traffic (Byte)
system.l2bus.snoopFanout::samples              302370                       # Request fanout histogram (Count)
system.l2bus.snoopFanout::mean               0.002484                       # Request fanout histogram (Count)
system.l2bus.snoopFanout::stdev              0.049775                       # Request fanout histogram (Count)
system.l2bus.snoopFanout::underflows                0      0.00%      0.00% # Request fanout histogram (Count)
system.l2bus.snoopFanout::0                    301619     99.75%     99.75% # Request fanout histogram (Count)
system.l2bus.snoopFanout::1                       751      0.25%    100.00% # Request fanout histogram (Count)
system.l2bus.snoopFanout::2                         0      0.00%    100.00% # Request fanout histogram (Count)
system.l2bus.snoopFanout::overflows                 0      0.00%    100.00% # Request fanout histogram (Count)
system.l2bus.snoopFanout::min_value                 0                       # Request fanout histogram (Count)
system.l2bus.snoopFanout::max_value                 1                       # Request fanout histogram (Count)
system.l2bus.snoopFanout::total                302370                       # Request fanout histogram (Count)
system.l2bus.power_state.pwrStateResidencyTicks::UNDEFINED   6685459200                       # Cumulative time (in ticks) in various power states (Tick)
system.l2bus.snoop_filter.totRequests          582138                       # Total number of requests made to the snoop filter. (Count)
system.l2bus.snoop_filter.hitSingleRequests       290557                       # Number of requests hitting in the snoop filter with a single holder of the requested data. (Count)
system.l2bus.snoop_filter.hitMultiRequests            0                       # Number of requests hitting in the snoop filter with multiple (>1) holders of the requested data. (Count)
system.l2bus.snoop_filter.totSnoops               751                       # Total number of snoops made to the snoop filter. (Count)
system.l2bus.snoop_filter.hitSingleSnoops          751                       # Number of snoops hitting in the snoop filter with a single holder of the requested data. (Count)
system.l2bus.snoop_filter.hitMultiSnoops            0                       # Number of snoops hitting in the snoop filter with multiple (>1) holders of the requested data. (Count)
system.l2cache.demandHits::cpu.inst                51                       # number of demand (read+write) hits (Count)
system.l2cache.demandHits::cpu.data            273178                       # number of demand (read+write) hits (Count)
system.l2cache.demandHits::total               273229                       # number of demand (read+write) hits (Count)
system.l2cache.overallHits::cpu.inst               51                       # number of overall hits (Count)
system.l2cache.overallHits::cpu.data           273178                       # number of overall hits (Count)
system.l2cache.overallHits::total              273229                       # number of overall hits (Count)
system.l2cache.demandMisses::cpu.inst            1743                       # number of demand (read+write) misses (Count)
system.l2cache.demandMisses::cpu.data           16609                       # number of demand (read+write) misses (Count)
system.l2cache.demandMisses::total              18352                       # number of demand (read+write) misses (Count)
system.l2cache.overallMisses::cpu.inst           1743                       # number of overall misses (Count)
system.l2cache.overallMisses::cpu.data          16609                       # number of overall misses (Count)
system.l2cache.overallMisses::total             18352                       # number of overall misses (Count)
system.l2cache.demandAccesses::cpu.inst          1794                       # number of demand (read+write) accesses (Count)
system.l2cache.demandAccesses::cpu.data        289787                       # number of demand (read+write) accesses (Count)
system.l2cache.demandAccesses::total           291581                       # number of demand (read+write) accesses (Count)
system.l2cache.overallAccesses::cpu.inst         1794                       # number of overall (read+write) accesses (Count)
system.l2cache.overallAccesses::cpu.data       289787                       # number of overall (read+write) accesses (Count)
system.l2cache.overallAccesses::total          291581                       # number of overall (read+write) accesses (Count)
system.l2cache.demandMissRate::cpu.inst      0.971572                       # miss rate for demand accesses (Ratio)
system.l2cache.demandMissRate::cpu.data      0.057315                       # miss rate for demand accesses (Ratio)
system.l2cache.demandMissRate::total         0.062940                       # miss rate for demand accesses (Ratio)
system.l2cache.overallMissRate::cpu.inst     0.971572                       # miss rate for overall accesses (Ratio)
system.l2cache.overallMissRate::cpu.data     0.057315                       # miss rate for overall accesses (Ratio)
system.l2cache.overallMissRate::total        0.062940                       # miss rate for overall accesses (Ratio)
system.l2cache.blockedCycles::no_mshrs              0                       # number of cycles access was blocked (Cycle)
system.l2cache.blockedCycles::no_targets            0                       # number of cycles access was blocked (Cycle)
system.l2cache.blockedCauses::no_mshrs              0                       # number of times access was blocked (Count)
system.l2cache.blockedCauses::no_targets            0                       # number of times access was blocked (Count)
system.l2cache.avgBlocked::no_mshrs               nan                       # average number of cycles each access was blocked ((Cycle/Count))
system.l2cache.avgBlocked::no_targets             nan                       # average number of cycles each access was blocked ((Cycle/Count))
system.l2cache.writebacks::writebacks            1776                       # number of writebacks (Count)
system.l2cache.writebacks::total                 1776                       # number of writebacks (Count)
system.l2cache.replacements                     10788                       # number of replacements (Count)
system.l2cache.ReadCleanReq.hits::cpu.inst           51                       # number of ReadCleanReq hits (Count)
system.l2cache.ReadCleanReq.hits::total            51                       # number of ReadCleanReq hits (Count)
system.l2cache.ReadCleanReq.misses::cpu.inst         1743                       # number of ReadCleanReq misses (Count)
system.l2cache.ReadCleanReq.misses::total         1743                       # number of ReadCleanReq misses (Count)
system.l2cache.ReadCleanReq.accesses::cpu.inst         1794                       # number of ReadCleanReq accesses(hits+misses) (Count)
system.l2cache.ReadCleanReq.accesses::total         1794                       # number of ReadCleanReq accesses(hits+misses) (Count)
system.l2cache.ReadCleanReq.missRate::cpu.inst     0.971572                       # miss rate for ReadCleanReq accesses (Ratio)
system.l2cache.ReadCleanReq.missRate::total     0.971572                       # miss rate for ReadCleanReq accesses (Ratio)
system.l2cache.ReadExReq.hits::cpu.data           964                       # number of ReadExReq hits (Count)
system.l2cache.ReadExReq.hits::total              964                       # number of ReadExReq hits (Count)
system.l2cache.ReadExReq.misses::cpu.data         7645                       # number of ReadExReq misses (Count)
system.l2cache.ReadExReq.misses::total           7645                       # number of ReadExReq misses (Count)
system.l2cache.ReadExReq.accesses::cpu.data         8609                       # number of ReadExReq accesses(hits+misses) (Count)
system.l2cache.ReadExReq.accesses::total         8609                       # number of ReadExReq accesses(hits+misses) (Count)
system.l2cache.ReadExReq.missRate::cpu.data     0.888024                       # miss rate for ReadExReq accesses (Ratio)
system.l2cache.ReadExReq.missRate::total     0.888024                       # miss rate for ReadExReq accesses (Ratio)
system.l2cache.ReadSharedReq.hits::cpu.data       272214                       # number of ReadSharedReq hits (Count)
system.l2cache.ReadSharedReq.hits::total       272214                       # number of ReadSharedReq hits (Count)
system.l2cache.ReadSharedReq.misses::cpu.data         8964                       # number of ReadSharedReq misses (Count)
system.l2cache.ReadSharedReq.misses::total         8964                       # number of ReadSharedReq misses (Count)
system.l2cache.ReadSharedReq.accesses::cpu.data       281178                       # number of ReadSharedReq accesses(hits+misses) (Count)
system.l2cache.ReadSharedReq.accesses::total       281178                       # number of ReadSharedReq accesses(hits+misses) (Count)
system.l2cache.ReadSharedReq.missRate::cpu.data     0.031880                       # miss rate for ReadSharedReq accesses (Ratio)
system.l2cache.ReadSharedReq.missRate::total     0.031880                       # miss rate for ReadSharedReq accesses (Ratio)
system.l2cache.WritebackClean.hits::writebacks         1282                       # number of WritebackClean hits (Count)
system.l2cache.WritebackClean.hits::total         1282                       # number of WritebackClean hits (Count)
system.l2cache.WritebackClean.accesses::writebacks         1282                       # number of WritebackClean accesses(hits+misses) (Count)
system.l2cache.WritebackClean.accesses::total         1282                       # number of WritebackClean accesses(hits+misses) (Count)
system.l2cache.WritebackDirty.hits::writebacks       276168                       # number of WritebackDirty hits (Count)
system.l2cache.WritebackDirty.hits::total       276168                       # number of WritebackDirty hits (Count)
system.l2cache.WritebackDirty.accesses::writebacks       276168                       # number of WritebackDirty accesses(hits+misses) (Count)
system.l2cache.WritebackDirty.accesses::total       276168                       # number of WritebackDirty accesses(hits+misses) (Count)
system.l2cache.power_state.pwrStateResidencyTicks::UNDEFINED   6685459200                       # Cumulative time (in ticks) in various power states (Tick)
system.l2cache.tags.tagsInUse             7821.030595                       # Average ticks per tags in use ((Tick/Count))
system.l2cache.tags.totalRefs                  582138                       # Total number of references to valid blocks. (Count)
system.l2cache.tags.sampledRefs                 18980                       # Sample count of references to valid blocks. (Count)
system.l2cache.tags.avgRefs                 30.671128                       # Average number of references to valid blocks. ((Count/Count))
system.l2cache.tags.warmupTick                      0                       # The tick when the warmup percentage was hit. (Tick)
system.l2cache.tags.occupancies::writebacks    57.525068                       # Average occupied blocks per tick, per requestor ((Count/Tick))
system.l2cache.tags.occupancies::cpu.inst   391.424441                       # Average occupied blocks per tick, per requestor ((Count/Tick))
system.l2cache.tags.occupancies::cpu.data  7372.081085                       # Average occupied blocks per tick, per requestor ((Count/Tick))
system.l2cache.tags.avgOccs::writebacks      0.007022                       # Average percentage of cache occupancy ((Ratio/Tick))
system.l2cache.tags.avgOccs::cpu.inst        0.047781                       # Average percentage of cache occupancy ((Ratio/Tick))
system.l2cache.tags.avgOccs::cpu.data        0.899912                       # Average percentage of cache occupancy ((Ratio/Tick))
system.l2cache.tags.avgOccs::total           0.954716                       # Average percentage of cache occupancy ((Ratio/Tick))
system.l2cache.tags.occupanciesTaskId::1024         8192                       # Occupied blocks per task id (Count)
system.l2cache.tags.ageTaskId_1024::0             615                       # Occupied blocks per task id, per block age (Count)
system.l2cache.tags.ageTaskId_1024::1             329                       # Occupied blocks per task id, per block age (Count)
system.l2cache.tags.ageTaskId_1024::3            7248                       # Occupied blocks per task id, per block age (Count)
system.l2cache.tags.ratioOccsTaskId::1024            1                       # Ratio of occupied blocks and all blocks, per task id (Ratio)
system.l2cache.tags.tagAccesses               9333188                       # Number of tag accesses (Count)
system.l2cache.tags.dataAccesses              9333188                       # Number of data accesses (Count)
system.l2cache.tags.power_state.pwrStateResidencyTicks::UNDEFINED   6685459200                       # Cumulative time (in ticks) in various power states (Tick)
system.l3bus.transDist::ReadResp                10707                       # Transaction distribution (Count)
system.l3bus.transDist::WritebackDirty           1776                       # Transaction distribution (Count)
system.l3bus.transDist::CleanEvict               8261                       # Transaction distribution (Count)
system.l3bus.transDist::ReadExReq                7645                       # Transaction distribution (Count)
system.l3bus.transDist::ReadExResp               7645                       # Transaction distribution (Count)
system.l3bus.transDist::ReadSharedReq           10707                       # Transaction distribution (Count)
system.l3bus.pktCount_system.l2cache.mem_side_port::system.l3cache.cpu_side_port        46741                       # Packet count per connected requestor and responder (Count)
system.l3bus.pktSize_system.l2cache.mem_side_port::system.l3cache.cpu_side_port      1288192                       # Cumulative packet size per connected requestor and responder (Byte)
system.l3bus.snoops                                 1                       # Total snoops (Count)
system.l3bus.snoopTraffic                           0                       # Total snoop traffic (Byte)
system.l3bus.snoopFanout::samples               18353                       # Request fanout histogram (Count)
system.l3bus.snoopFanout::mean               0.000054                       # Request fanout histogram (Count)
system.l3bus.snoopFanout::stdev              0.007382                       # Request fanout histogram (Count)
system.l3bus.snoopFanout::underflows                0      0.00%      0.00% # Request fanout histogram (Count)
system.l3bus.snoopFanout::0                     18352     99.99%     99.99% # Request fanout histogram (Count)
system.l3bus.snoopFanout::1                         1      0.01%    100.00% # Request fanout histogram (Count)
system.l3bus.snoopFanout::overflows                 0      0.00%    100.00% # Request fanout histogram (Count)
system.l3bus.snoopFanout::min_value                 0                       # Request fanout histogram (Count)
system.l3bus.snoopFanout::max_value                 1                       # Request fanout histogram (Count)
system.l3bus.snoopFanout::total                 18353                       # Request fanout histogram (Count)
system.l3bus.power_state.pwrStateResidencyTicks::UNDEFINED   6685459200                       # Cumulative time (in ticks) in various power states (Tick)
system.l3bus.snoop_filter.totRequests           28389                       # Total number of requests made to the snoop filter. (Count)
system.l3bus.snoop_filter.hitSingleRequests        10037                       # Number of requests hitting in the snoop filter with a single holder of the requested data. (Count)
system.l3bus.snoop_filter.hitMultiRequests            0                       # Number of requests hitting in the snoop filter with multiple (>1) holders of the requested data. (Count)
system.l3bus.snoop_filter.totSnoops                 1                       # Total number of snoops made to the snoop filter. (Count)
system.l3bus.snoop_filter.hitSingleSnoops            1                       # Number of snoops hitting in the snoop filter with a single holder of the requested data. (Count)
system.l3bus.snoop_filter.hitMultiSnoops            0                       # Number of snoops hitting in the snoop filter with multiple (>1) holders of the requested data. (Count)
system.l3cache.demandHits::cpu.inst                32                       # number of demand (read+write) hits (Count)
system.l3cache.demandHits::cpu.data               599                       # number of demand (read+write) hits (Count)
system.l3cache.demandHits::total                  631                       # number of demand (read+write) hits (Count)
system.l3cache.overallHits::cpu.inst               32                       # number of overall hits (Count)
system.l3cache.overallHits::cpu.data              599                       # number of overall hits (Count)
system.l3cache.overallHits::total                 631                       # number of overall hits (Count)
system.l3cache.demandMisses::cpu.inst            1711                       # number of demand (read+write) misses (Count)
system.l3cache.demandMisses::cpu.data           16010                       # number of demand (read+write) misses (Count)
system.l3cache.demandMisses::total              17721                       # number of demand (read+write) misses (Count)
system.l3cache.overallMisses::cpu.inst           1711                       # number of overall misses (Count)
system.l3cache.overallMisses::cpu.data          16010                       # number of overall misses (Count)
system.l3cache.overallMisses::total             17721                       # number of overall misses (Count)
system.l3cache.demandAccesses::cpu.inst          1743                       # number of demand (read+write) accesses (Count)
system.l3cache.demandAccesses::cpu.data         16609                       # number of demand (read+write) accesses (Count)
system.l3cache.demandAccesses::total            18352                       # number of demand (read+write) accesses (Count)
system.l3cache.overallAccesses::cpu.inst         1743                       # number of overall (read+write) accesses (Count)
system.l3cache.overallAccesses::cpu.data        16609                       # number of overall (read+write) accesses (Count)
system.l3cache.overallAccesses::total           18352                       # number of overall (read+write) accesses (Count)
system.l3cache.demandMissRate::cpu.inst      0.981641                       # miss rate for demand accesses (Ratio)
system.l3cache.demandMissRate::cpu.data      0.963935                       # miss rate for demand accesses (Ratio)
system.l3cache.demandMissRate::total         0.965617                       # miss rate for demand accesses (Ratio)
system.l3cache.overallMissRate::cpu.inst     0.981641                       # miss rate for overall accesses (Ratio)
system.l3cache.overallMissRate::cpu.data     0.963935                       # miss rate for overall accesses (Ratio)
system.l3cache.overallMissRate::total        0.965617                       # miss rate for overall accesses (Ratio)
system.l3cache.blockedCycles::no_mshrs              0                       # number of cycles access was blocked (Cycle)
system.l3cache.blockedCycles::no_targets            0                       # number of cycles access was blocked (Cycle)
system.l3cache.blockedCauses::no_mshrs              0                       # number of times access was blocked (Count)
system.l3cache.blockedCauses::no_targets            0                       # number of times access was blocked (Count)
system.l3cache.avgBlocked::no_mshrs               nan                       # average number of cycles each access was blocked ((Cycle/Count))
system.l3cache.avgBlocked::no_targets             nan                       # average number of cycles each access was blocked ((Cycle/Count))
system.l3cache.replacements                         1                       # number of replacements (Count)
system.l3cache.ReadExReq.hits::cpu.data            86                       # number of ReadExReq hits (Count)
system.l3cache.ReadExReq.hits::total               86                       # number of ReadExReq hits (Count)
system.l3cache.ReadExReq.misses::cpu.data         7559                       # number of ReadExReq misses (Count)
system.l3cache.ReadExReq.misses::total           7559                       # number of ReadExReq misses (Count)
system.l3cache.ReadExReq.accesses::cpu.data         7645                       # number of ReadExReq accesses(hits+misses) (Count)
system.l3cache.ReadExReq.accesses::total         7645                       # number of ReadExReq accesses(hits+misses) (Count)
system.l3cache.ReadExReq.missRate::cpu.data     0.988751                       # miss rate for ReadExReq accesses (Ratio)
system.l3cache.ReadExReq.missRate::total     0.988751                       # miss rate for ReadExReq accesses (Ratio)
system.l3cache.ReadSharedReq.hits::cpu.inst           32                       # number of ReadSharedReq hits (Count)
system.l3cache.ReadSharedReq.hits::cpu.data          513                       # number of ReadSharedReq hits (Count)
system.l3cache.ReadSharedReq.hits::total          545                       # number of ReadSharedReq hits (Count)
system.l3cache.ReadSharedReq.misses::cpu.inst         1711                       # number of ReadSharedReq misses (Count)
system.l3cache.ReadSharedReq.misses::cpu.data         8451                       # number of ReadSharedReq misses (Count)
system.l3cache.ReadSharedReq.misses::total        10162                       # number of ReadSharedReq misses (Count)
system.l3cache.ReadSharedReq.accesses::cpu.inst         1743                       # number of ReadSharedReq accesses(hits+misses) (Count)
system.l3cache.ReadSharedReq.accesses::cpu.data         8964                       # number of ReadSharedReq accesses(hits+misses) (Count)
system.l3cache.ReadSharedReq.accesses::total        10707                       # number of ReadSharedReq accesses(hits+misses) (Count)
system.l3cache.ReadSharedReq.missRate::cpu.inst     0.981641                       # miss rate for ReadSharedReq accesses (Ratio)
system.l3cache.ReadSharedReq.missRate::cpu.data     0.942771                       # miss rate for ReadSharedReq accesses (Ratio)
system.l3cache.ReadSharedReq.missRate::total     0.949099                       # miss rate for ReadSharedReq accesses (Ratio)
system.l3cache.WritebackDirty.hits::writebacks         1776                       # number of WritebackDirty hits (Count)
system.l3cache.WritebackDirty.hits::total         1776                       # number of WritebackDirty hits (Count)
system.l3cache.WritebackDirty.accesses::writebacks         1776                       # number of WritebackDirty accesses(hits+misses) (Count)
system.l3cache.WritebackDirty.accesses::total         1776                       # number of WritebackDirty accesses(hits+misses) (Count)
system.l3cache.power_state.pwrStateResidencyTicks::UNDEFINED   6685459200                       # Cumulative time (in ticks) in various power states (Tick)
system.l3cache.tags.tagsInUse            15376.069795                       # Average ticks per tags in use ((Tick/Count))
system.l3cache.tags.totalRefs                   28389                       # Total number of references to valid blocks. (Count)
system.l3cache.tags.sampledRefs                 17721                       # Sample count of references to valid blocks. (Count)
system.l3cache.tags.avgRefs                  1.601998                       # Average number of references to valid blocks. ((Count/Count))
system.l3cache.tags.warmupTick                      0                       # The tick when the warmup percentage was hit. (Tick)
system.l3cache.tags.occupancies::cpu.inst  1281.456933                       # Average occupied blocks per tick, per requestor ((Count/Tick))
system.l3cache.tags.occupancies::cpu.data 14094.612862                       # Average occupied blocks per tick, per requestor ((Count/Tick))
system.l3cache.tags.avgOccs::cpu.inst        0.039107                       # Average percentage of cache occupancy ((Ratio/Tick))
system.l3cache.tags.avgOccs::cpu.data        0.430133                       # Average percentage of cache occupancy ((Ratio/Tick))
system.l3cache.tags.avgOccs::total           0.469240                       # Average percentage of cache occupancy ((Ratio/Tick))
system.l3cache.tags.occupanciesTaskId::1024        17720                       # Occupied blocks per task id (Count)
system.l3cache.tags.ageTaskId_1024::0             239                       # Occupied blocks per task id, per block age (Count)
system.l3cache.tags.ageTaskId_1024::1             139                       # Occupied blocks per task id, per block age (Count)
system.l3cache.tags.ageTaskId_1024::3           17342                       # Occupied blocks per task id, per block age (Count)
system.l3cache.tags.ratioOccsTaskId::1024     0.540771                       # Ratio of occupied blocks and all blocks, per task id (Ratio)
system.l3cache.tags.tagAccesses                471945                       # Number of tag accesses (Count)
system.l3cache.tags.dataAccesses               471945                       # Number of data accesses (Count)
system.l3cache.tags.power_state.pwrStateResidencyTicks::UNDEFINED   6685459200                       # Cumulative time (in ticks) in various power states (Tick)
system.mem_ctrl.priorityMinLatency       0.000000000000                       # per QoS priority minimum request to response latency (Second)
system.mem_ctrl.priorityMaxLatency       0.000000000000                       # per QoS priority maximum request to response latency (Second)
system.mem_ctrl.numReadWriteTurnArounds             0                       # Number of turnarounds from READ to WRITE (Count)
system.mem_ctrl.numWriteReadTurnArounds             0                       # Number of turnarounds from WRITE to READ (Count)
system.mem_ctrl.numStayReadState                    0                       # Number of times bus staying in READ state (Count)
system.mem_ctrl.numStayWriteState                   0                       # Number of times bus staying in WRITE state (Count)
system.mem_ctrl.readReqs                            0                       # Number of read requests accepted (Count)
system.mem_ctrl.writeReqs                           0                       # Number of write requests accepted (Count)
system.mem_ctrl.readBursts                          0                       # Number of controller read bursts, including those serviced by the write queue (Count)
system.mem_ctrl.writeBursts                         0                       # Number of controller write bursts, including those merged in the write queue (Count)
system.mem_ctrl.servicedByWrQ                       0                       # Number of controller read bursts serviced by the write queue (Count)
system.mem_ctrl.mergedWrBursts                      0                       # Number of controller write bursts merged with an existing one (Count)
system.mem_ctrl.neitherReadNorWriteReqs             0                       # Number of requests that are neither read nor write (Count)
system.mem_ctrl.avgRdQLen                        0.00                       # Average read queue length when enqueuing ((Count/Tick))
system.mem_ctrl.avgWrQLen                        0.00                       # Average write queue length when enqueuing ((Count/Tick))
system.mem_ctrl.numRdRetry                          0                       # Number of times read queue was full causing retry (Count)
system.mem_ctrl.numWrRetry                          0                       # Number of times write queue was full causing retry (Count)
system.mem_ctrl.readPktSize::0                      0                       # Read request sizes (log2) (Count)
system.mem_ctrl.readPktSize::1                      0                       # Read request sizes (log2) (Count)
system.mem_ctrl.readPktSize::2                      0                       # Read request sizes (log2) (Count)
system.mem_ctrl.readPktSize::3                      0                       # Read request sizes (log2) (Count)
system.mem_ctrl.readPktSize::4                      0                       # Read request sizes (log2) (Count)
system.mem_ctrl.readPktSize::5                      0                       # Read request sizes (log2) (Count)
system.mem_ctrl.readPktSize::6                      0                       # Read request sizes (log2) (Count)
system.mem_ctrl.writePktSize::0                     0                       # Write request sizes (log2) (Count)
system.mem_ctrl.writePktSize::1                     0                       # Write request sizes (log2) (Count)
system.mem_ctrl.writePktSize::2                     0                       # Write request sizes (log2) (Count)
system.mem_ctrl.writePktSize::3                     0                       # Write request sizes (log2) (Count)
system.mem_ctrl.writePktSize::4                     0                       # Write request sizes (log2) (Count)
system.mem_ctrl.writePktSize::5                     0                       # Write request sizes (log2) (Count)
system.mem_ctrl.writePktSize::6                     0                       # Write request sizes (log2) (Count)
system.mem_ctrl.rdQLenPdf::0                        0                       # What read queue length does an incoming req see (Count)
system.mem_ctrl.rdQLenPdf::1                        0                       # What read queue length does an incoming req see (Count)
system.mem_ctrl.rdQLenPdf::2                        0                       # What read queue length does an incoming req see (Count)
system.mem_ctrl.rdQLenPdf::3                        0                       # What read queue length does an incoming req see (Count)
system.mem_ctrl.rdQLenPdf::4                        0                       # What read queue length does an incoming req see (Count)
system.mem_ctrl.rdQLenPdf::5                        0                       # What read queue length does an incoming req see (Count)
system.mem_ctrl.rdQLenPdf::6                        0                       # What read queue length does an incoming req see (Count)
system.mem_ctrl.rdQLenPdf::7                        0                       # What read queue length does an incoming req see (Count)
system.mem_ctrl.rdQLenPdf::8                        0                       # What read queue length does an incoming req see (Count)
system.mem_ctrl.rdQLenPdf::9                        0                       # What read queue length does an incoming req see (Count)
system.mem_ctrl.rdQLenPdf::10                       0                       # What read queue length does an incoming req see (Count)
system.mem_ctrl.rdQLenPdf::11                       0                       # What read queue length does an incoming req see (Count)
system.mem_ctrl.rdQLenPdf::12                       0                       # What read queue length does an incoming req see (Count)
system.mem_ctrl.rdQLenPdf::13                       0                       # What read queue length does an incoming req see (Count)
system.mem_ctrl.rdQLenPdf::14                       0                       # What read queue length does an incoming req see (Count)
system.mem_ctrl.rdQLenPdf::15                       0                       # What read queue length does an incoming req see (Count)
system.mem_ctrl.rdQLenPdf::16                       0                       # What read queue length does an incoming req see (Count)
system.mem_ctrl.rdQLenPdf::17                       0                       # What read queue length does an incoming req see (Count)
system.mem_ctrl.rdQLenPdf::18                       0                       # What read queue length does an incoming req see (Count)
system.mem_ctrl.rdQLenPdf::19                       0                       # What read queue length does an incoming req see (Count)
system.mem_ctrl.rdQLenPdf::20                       0                       # What read queue length does an incoming req see (Count)
system.mem_ctrl.rdQLenPdf::21                       0                       # What read queue length does an incoming req see (Count)
system.mem_ctrl.rdQLenPdf::22                       0                       # What read queue length does an incoming req see (Count)
system.mem_ctrl.rdQLenPdf::23                       0                       # What read queue length does an incoming req see (Count)
system.mem_ctrl.rdQLenPdf::24                       0                       # What read queue length does an incoming req see (Count)
system.mem_ctrl.rdQLenPdf::25                       0                       # What read queue length does an incoming req see (Count)
system.mem_ctrl.rdQLenPdf::26                       0                       # What read queue length does an incoming req see (Count)
system.mem_ctrl.rdQLenPdf::27                       0                       # What read queue length does an incoming req see (Count)
system.mem_ctrl.rdQLenPdf::28                       0                       # What read queue length does an incoming req see (Count)
system.mem_ctrl.rdQLenPdf::29                       0                       # What read queue length does an incoming req see (Count)
system.mem_ctrl.rdQLenPdf::30                       0                       # What read queue length does an incoming req see (Count)
system.mem_ctrl.rdQLenPdf::31                       0                       # What read queue length does an incoming req see (Count)
system.mem_ctrl.rdQLenPdf::32                       0                       # What read queue length does an incoming req see (Count)
system.mem_ctrl.rdQLenPdf::33                       0                       # What read queue length does an incoming req see (Count)
system.mem_ctrl.rdQLenPdf::34                       0                       # What read queue length does an incoming req see (Count)
system.mem_ctrl.rdQLenPdf::35                       0                       # What read queue length does an incoming req see (Count)
system.mem_ctrl.rdQLenPdf::36                       0                       # What read queue length does an incoming req see (Count)
system.mem_ctrl.rdQLenPdf::37                       0                       # What read queue length does an incoming req see (Count)
system.mem_ctrl.rdQLenPdf::38                       0                       # What read queue length does an incoming req see (Count)
system.mem_ctrl.rdQLenPdf::39                       0                       # What read queue length does an incoming req see (Count)
system.mem_ctrl.rdQLenPdf::40                       0                       # What read queue length does an incoming req see (Count)
system.mem_ctrl.rdQLenPdf::41                       0                       # What read queue length does an incoming req see (Count)
system.mem_ctrl.rdQLenPdf::42                       0                       # What read queue length does an incoming req see (Count)
system.mem_ctrl.rdQLenPdf::43                       0                       # What read queue length does an incoming req see (Count)
system.mem_ctrl.rdQLenPdf::44                       0                       # What read queue length does an incoming req see (Count)
system.mem_ctrl.rdQLenPdf::45                       0                       # What read queue length does an incoming req see (Count)
system.mem_ctrl.rdQLenPdf::46                       0                       # What read queue length does an incoming req see (Count)
system.mem_ctrl.rdQLenPdf::47                       0                       # What read queue length does an incoming req see (Count)
system.mem_ctrl.rdQLenPdf::48                       0                       # What read queue length does an incoming req see (Count)
system.mem_ctrl.rdQLenPdf::49                       0                       # What read queue length does an incoming req see (Count)
system.mem_ctrl.rdQLenPdf::50                       0                       # What read queue length does an incoming req see (Count)
system.mem_ctrl.rdQLenPdf::51                       0                       # What read queue length does an incoming req see (Count)
system.mem_ctrl.rdQLenPdf::52                       0                       # What read queue length does an incoming req see (Count)
system.mem_ctrl.rdQLenPdf::53                       0                       # What read queue length does an incoming req see (Count)
system.mem_ctrl.rdQLenPdf::54                       0                       # What read queue length does an incoming req see (Count)
system.mem_ctrl.rdQLenPdf::55                       0                       # What read queue length does an incoming req see (Count)
system.mem_ctrl.rdQLenPdf::56                       0                       # What read queue length does an incoming req see (Count)
system.mem_ctrl.rdQLenPdf::57                       0                       # What read queue length does an incoming req see (Count)
system.mem_ctrl.rdQLenPdf::58                       0                       # What read queue length does an incoming req see (Count)
system.mem_ctrl.rdQLenPdf::59                       0                       # What read queue length does an incoming req see (Count)
system.mem_ctrl.rdQLenPdf::60                       0                       # What read queue length does an incoming req see (Count)
system.mem_ctrl.rdQLenPdf::61                       0                       # What read queue length does an incoming req see (Count)
system.mem_ctrl.rdQLenPdf::62                       0                       # What read queue length does an incoming req see (Count)
system.mem_ctrl.rdQLenPdf::63                       0                       # What read queue length does an incoming req see (Count)
system.mem_ctrl.wrQLenPdf::0                        0                       # What write queue length does an incoming req see (Count)
system.mem_ctrl.wrQLenPdf::1                        0                       # What write queue length does an incoming req see (Count)
system.mem_ctrl.wrQLenPdf::2                        0                       # What write queue length does an incoming req see (Count)
system.mem_ctrl.wrQLenPdf::3                        0                       # What write queue length does an incoming req see (Count)
system.mem_ctrl.wrQLenPdf::4                        0                       # What write queue length does an incoming req see (Count)
system.mem_ctrl.wrQLenPdf::5                        0                       # What write queue length does an incoming req see (Count)
system.mem_ctrl.wrQLenPdf::6                        0                       # What write queue length does an incoming req see (Count)
system.mem_ctrl.wrQLenPdf::7                        0                       # What write queue length does an incoming req see (Count)
system.mem_ctrl.wrQLenPdf::8                        0                       # What write queue length does an incoming req see (Count)
system.mem_ctrl.wrQLenPdf::9                        0                       # What write queue length does an incoming req see (Count)
system.mem_ctrl.wrQLenPdf::10                       0                       # What write queue length does an incoming req see (Count)
system.mem_ctrl.wrQLenPdf::11                       0                       # What write queue length does an incoming req see (Count)
system.mem_ctrl.wrQLenPdf::12                       0                       # What write queue length does an incoming req see (Count)
system.mem_ctrl.wrQLenPdf::13                       0                       # What write queue length does an incoming req see (Count)
system.mem_ctrl.wrQLenPdf::14                       0                       # What write queue length does an incoming req see (Count)
system.mem_ctrl.wrQLenPdf::15                       0                       # What write queue length does an incoming req see (Count)
system.mem_ctrl.wrQLenPdf::16                       0                       # What write queue length does an incoming req see (Count)
system.mem_ctrl.wrQLenPdf::17                       0                       # What write queue length does an incoming req see (Count)
system.mem_ctrl.wrQLenPdf::18                       0                       # What write queue length does an incoming req see (Count)
system.mem_ctrl.wrQLenPdf::19                       0                       # What write queue length does an incoming req see (Count)
system.mem_ctrl.wrQLenPdf::20                       0                       # What write queue length does an incoming req see (Count)
system.mem_ctrl.wrQLenPdf::21                       0                       # What write queue length does an incoming req see (Count)
system.mem_ctrl.wrQLenPdf::22                       0                       # What write queue length does an incoming req see (Count)
system.mem_ctrl.wrQLenPdf::23                       0                       # What write queue length does an incoming req see (Count)
system.mem_ctrl.wrQLenPdf::24                       0                       # What write queue length does an incoming req see (Count)
system.mem_ctrl.wrQLenPdf::25                       0                       # What write queue length does an incoming req see (Count)
system.mem_ctrl.wrQLenPdf::26                       0                       # What write queue length does an incoming req see (Count)
system.mem_ctrl.wrQLenPdf::27                       0                       # What write queue length does an incoming req see (Count)
system.mem_ctrl.wrQLenPdf::28                       0                       # What write queue length does an incoming req see (Count)
[...]
system.mem_ctrl.dram.numReads::total            17721                       # Number of read requests responded to by this memory (Count)
system.mem_ctrl.dram.bwRead::cpu.inst        16379428                       # Total read bandwidth from this memory ((Byte/Second))
system.mem_ctrl.dram.bwRead::cpu.data       153263967                       # Total read bandwidth from this memory ((Byte/Second))
system.mem_ctrl.dram.bwRead::total          169643396                       # Total read bandwidth from this memory ((Byte/Second))
system.mem_ctrl.dram.bwInstRead::cpu.inst     16379428                       # Instruction read bandwidth from this memory ((Byte/Second))
system.mem_ctrl.dram.bwInstRead::total       16379428                       # Instruction read bandwidth from this memory ((Byte/Second))
system.mem_ctrl.dram.bwTotal::cpu.inst       16379428                       # Total bandwidth to/from this memory ((Byte/Second))
system.mem_ctrl.dram.bwTotal::cpu.data      153263967                       # Total bandwidth to/from this memory ((Byte/Second))
system.mem_ctrl.dram.bwTotal::total         169643396                       # Total bandwidth to/from this memory ((Byte/Second))
system.mem_ctrl.dram.readBursts                     0                       # Number of DRAM read bursts (Count)
system.mem_ctrl.dram.writeBursts                    0                       # Number of DRAM write bursts (Count)
system.mem_ctrl.dram.perBankRdBursts::0             0                       # Per bank write bursts (Count)
system.mem_ctrl.dram.perBankRdBursts::1             0                       # Per bank write bursts (Count)
system.mem_ctrl.dram.perBankRdBursts::2             0                       # Per bank write bursts (Count)
system.mem_ctrl.dram.perBankRdBursts::3             0                       # Per bank write bursts (Count)
system.mem_ctrl.dram.perBankRdBursts::4             0                       # Per bank write bursts (Count)
system.mem_ctrl.dram.perBankRdBursts::5             0                       # Per bank write bursts (Count)
system.mem_ctrl.dram.perBankRdBursts::6             0                       # Per bank write bursts (Count)
system.mem_ctrl.dram.perBankRdBursts::7             0                       # Per bank write bursts (Count)
system.mem_ctrl.dram.perBankRdBursts::8             0                       # Per bank write bursts (Count)
system.mem_ctrl.dram.perBankRdBursts::9             0                       # Per bank write bursts (Count)
system.mem_ctrl.dram.perBankRdBursts::10            0                       # Per bank write bursts (Count)
system.mem_ctrl.dram.perBankRdBursts::11            0                       # Per bank write bursts (Count)
system.mem_ctrl.dram.perBankRdBursts::12            0                       # Per bank write bursts (Count)
system.mem_ctrl.dram.perBankRdBursts::13            0                       # Per bank write bursts (Count)
system.mem_ctrl.dram.perBankRdBursts::14            0                       # Per bank write bursts (Count)
system.mem_ctrl.dram.perBankRdBursts::15            0                       # Per bank write bursts (Count)
system.mem_ctrl.dram.perBankRdBursts::16            0                       # Per bank write bursts (Count)
system.mem_ctrl.dram.perBankRdBursts::17            0                       # Per bank write bursts (Count)
system.mem_ctrl.dram.perBankRdBursts::18            0                       # Per bank write bursts (Count)
system.mem_ctrl.dram.perBankRdBursts::19            0                       # Per bank write bursts (Count)
system.mem_ctrl.dram.perBankRdBursts::20            0                       # Per bank write bursts (Count)
system.mem_ctrl.dram.perBankRdBursts::21            0                       # Per bank write bursts (Count)
system.mem_ctrl.dram.perBankRdBursts::22            0                       # Per bank write bursts (Count)
system.mem_ctrl.dram.perBankRdBursts::23            0                       # Per bank write bursts (Count)
system.mem_ctrl.dram.perBankRdBursts::24            0                       # Per bank write bursts (Count)
system.mem_ctrl.dram.perBankRdBursts::25            0                       # Per bank write bursts (Count)
system.mem_ctrl.dram.perBankRdBursts::26            0                       # Per bank write bursts (Count)
system.mem_ctrl.dram.perBankRdBursts::27            0                       # Per bank write bursts (Count)
system.mem_ctrl.dram.perBankRdBursts::28            0                       # Per bank write bursts (Count)
system.mem_ctrl.dram.perBankRdBursts::29            0                       # Per bank write bursts (Count)
system.mem_ctrl.dram.perBankRdBursts::30            0                       # Per bank write bursts (Count)
system.mem_ctrl.dram.perBankRdBursts::31            0                       # Per bank write bursts (Count)
system.mem_ctrl.dram.perBankWrBursts::0             0                       # Per bank write bursts (Count)
system.mem_ctrl.dram.perBankWrBursts::1             0                       # Per bank write bursts (Count)
system.mem_ctrl.dram.perBankWrBursts::2             0                       # Per bank write bursts (Count)
system.mem_ctrl.dram.perBankWrBursts::3             0                       # Per bank write bursts (Count)
system.mem_ctrl.dram.perBankWrBursts::4             0                       # Per bank write bursts (Count)
system.mem_ctrl.dram.perBankWrBursts::5             0                       # Per bank write bursts (Count)
system.mem_ctrl.dram.perBankWrBursts::6             0                       # Per bank write bursts (Count)
system.mem_ctrl.dram.perBankWrBursts::7             0                       # Per bank write bursts (Count)
system.mem_ctrl.dram.perBankWrBursts::8             0                       # Per bank write bursts (Count)
system.mem_ctrl.dram.perBankWrBursts::9             0                       # Per bank write bursts (Count)
system.mem_ctrl.dram.perBankWrBursts::10            0                       # Per bank write bursts (Count)
system.mem_ctrl.dram.perBankWrBursts::11            0                       # Per bank write bursts (Count)
system.mem_ctrl.dram.perBankWrBursts::12            0                       # Per bank write bursts (Count)
system.mem_ctrl.dram.perBankWrBursts::13            0                       # Per bank write bursts (Count)
system.mem_ctrl.dram.perBankWrBursts::14            0                       # Per bank write bursts (Count)
system.mem_ctrl.dram.perBankWrBursts::15            0                       # Per bank write bursts (Count)
system.mem_ctrl.dram.perBankWrBursts::16            0                       # Per bank write bursts (Count)
system.mem_ctrl.dram.perBankWrBursts::17            0                       # Per bank write bursts (Count)
system.mem_ctrl.dram.perBankWrBursts::18            0                       # Per bank write bursts (Count)
system.mem_ctrl.dram.perBankWrBursts::19            0                       # Per bank write bursts (Count)
system.mem_ctrl.dram.perBankWrBursts::20            0                       # Per bank write bursts (Count)
system.mem_ctrl.dram.perBankWrBursts::21            0                       # Per bank write bursts (Count)
system.mem_ctrl.dram.perBankWrBursts::22            0                       # Per bank write bursts (Count)
system.mem_ctrl.dram.perBankWrBursts::23            0                       # Per bank write bursts (Count)
system.mem_ctrl.dram.perBankWrBursts::24            0                       # Per bank write bursts (Count)
system.mem_ctrl.dram.perBankWrBursts::25            0                       # Per bank write bursts (Count)
system.mem_ctrl.dram.perBankWrBursts::26            0                       # Per bank write bursts (Count)
system.mem_ctrl.dram.perBankWrBursts::27            0                       # Per bank write bursts (Count)
system.mem_ctrl.dram.perBankWrBursts::28            0                       # Per bank write bursts (Count)
system.mem_ctrl.dram.perBankWrBursts::29            0                       # Per bank write bursts (Count)
system.mem_ctrl.dram.perBankWrBursts::30            0                       # Per bank write bursts (Count)
system.mem_ctrl.dram.perBankWrBursts::31            0                       # Per bank write bursts (Count)
system.mem_ctrl.dram.totQLat                        0                       # Total ticks spent queuing (Tick)
system.mem_ctrl.dram.totBusLat                      0                       # Total ticks spent in databus transfers (Tick)
system.mem_ctrl.dram.totMemAccLat                   0                       # Total ticks spent from burst creation until serviced by the DRAM (Tick)
system.mem_ctrl.dram.avgQLat                      nan                       # Average queueing delay per DRAM burst ((Tick/Count))
system.mem_ctrl.dram.avgBusLat                    nan                       # Average bus latency per DRAM burst ((Tick/Count))
system.mem_ctrl.dram.avgMemAccLat                 nan                       # Average memory access latency per DRAM burst ((Tick/Count))
system.mem_ctrl.dram.readRowHits                    0                       # Number of row buffer hits during reads (Count)
system.mem_ctrl.dram.writeRowHits                   0                       # Number of row buffer hits during writes (Count)
system.mem_ctrl.dram.readRowHitRate               nan                       # Row buffer hit rate for reads (Ratio)
system.mem_ctrl.dram.writeRowHitRate              nan                       # Row buffer hit rate for writes (Ratio)
system.mem_ctrl.dram.bytesRead                      0                       # Total bytes read (Byte)
system.mem_ctrl.dram.bytesWritten                   0                       # Total bytes written (Byte)
system.mem_ctrl.dram.avgRdBW                        0                       # Average DRAM read bandwidth in MiBytes/s ((Byte/Second))
system.mem_ctrl.dram.avgWrBW                        0                       # Average DRAM write bandwidth in MiBytes/s ((Byte/Second))
system.mem_ctrl.dram.peakBW                  19207.00                       # Theoretical peak bandwidth in MiByte/s ((Byte/Second))
system.mem_ctrl.dram.busUtil                     0.00                       # Data bus utilization in percentage (Ratio)
system.mem_ctrl.dram.busUtilRead                 0.00                       # Data bus utilization in percentage for reads (Ratio)
system.mem_ctrl.dram.busUtilWrite                0.00                       # Data bus utilization in percentage for writes (Ratio)
system.mem_ctrl.dram.pageHitRate                  nan                       # Row buffer hit rate, read and write combined (Ratio)
system.mem_ctrl.dram.power_state.pwrStateResidencyTicks::UNDEFINED   6685459200                       # Cumulative time (in ticks) in various power states (Tick)
system.mem_ctrl.dram.rank0.actEnergy                0                       # Energy for activate commands per rank (pJ) (Joule)
system.mem_ctrl.dram.rank0.preEnergy                0                       # Energy for precharge commands per rank (pJ) (Joule)
system.mem_ctrl.dram.rank0.readEnergy               0                       # Energy for read commands per rank (pJ) (Joule)
system.mem_ctrl.dram.rank0.writeEnergy              0                       # Energy for write commands per rank (pJ) (Joule)
system.mem_ctrl.dram.rank0.refreshEnergy            0                       # Energy for refresh commands per rank (pJ) (Joule)
system.mem_ctrl.dram.rank0.actBackEnergy            0                       # Energy for active background per rank (pJ) (Joule)
system.mem_ctrl.dram.rank0.preBackEnergy 2182134061.094399                       # Energy for precharge background per rank (pJ) (Joule)
system.mem_ctrl.dram.rank0.actPowerDownEnergy            0                       # Energy for active power-down per rank (pJ) (Joule)
system.mem_ctrl.dram.rank0.prePowerDownEnergy            0                       # Energy for precharge power-down per rank (pJ) (Joule)
system.mem_ctrl.dram.rank0.selfRefreshEnergy            0                       # Energy for self refresh per rank (pJ) (Joule)
system.mem_ctrl.dram.rank0.totalEnergy   2182134061.094399                       # Total energy per rank (pJ) (Joule)
system.mem_ctrl.dram.rank0.averagePower    326.400027                       # Core power per rank (mW) (Watt)
system.mem_ctrl.dram.rank0.totalIdleTime            0                       # Total Idle time Per DRAM Rank (Tick)
system.mem_ctrl.dram.rank0.pwrStateTime::IDLE   6685459200                       # Time in different power states (Tick)
system.mem_ctrl.dram.rank0.pwrStateTime::REF            0                       # Time in different power states (Tick)
system.mem_ctrl.dram.rank0.pwrStateTime::SREF            0                       # Time in different power states (Tick)
system.mem_ctrl.dram.rank0.pwrStateTime::PRE_PDN            0                       # Time in different power states (Tick)
system.mem_ctrl.dram.rank0.pwrStateTime::ACT            0                       # Time in different power states (Tick)
system.mem_ctrl.dram.rank0.pwrStateTime::ACT_PDN            0                       # Time in different power states (Tick)
system.mem_ctrl.dram.rank1.actEnergy                0                       # Energy for activate commands per rank (pJ) (Joule)
system.mem_ctrl.dram.rank1.preEnergy                0                       # Energy for precharge commands per rank (pJ) (Joule)
system.mem_ctrl.dram.rank1.readEnergy               0                       # Energy for read commands per rank (pJ) (Joule)
system.mem_ctrl.dram.rank1.writeEnergy              0                       # Energy for write commands per rank (pJ) (Joule)
system.mem_ctrl.dram.rank1.refreshEnergy            0                       # Energy for refresh commands per rank (pJ) (Joule)
system.mem_ctrl.dram.rank1.actBackEnergy            0                       # Energy for active background per rank (pJ) (Joule)
system.mem_ctrl.dram.rank1.preBackEnergy 2182134061.094399                       # Energy for precharge background per rank (pJ) (Joule)
system.mem_ctrl.dram.rank1.actPowerDownEnergy            0                       # Energy for active power-down per rank (pJ) (Joule)
system.mem_ctrl.dram.rank1.prePowerDownEnergy            0                       # Energy for precharge power-down per rank (pJ) (Joule)
system.mem_ctrl.dram.rank1.selfRefreshEnergy            0                       # Energy for self refresh per rank (pJ) (Joule)
system.mem_ctrl.dram.rank1.totalEnergy   2182134061.094399                       # Total energy per rank (pJ) (Joule)
system.mem_ctrl.dram.rank1.averagePower    326.400027                       # Core power per rank (mW) (Watt)
system.mem_ctrl.dram.rank1.totalIdleTime            0                       # Total Idle time Per DRAM Rank (Tick)
system.mem_ctrl.dram.rank1.pwrStateTime::IDLE   6685459200                       # Time in different power states (Tick)
system.mem_ctrl.dram.rank1.pwrStateTime::REF            0                       # Time in different power states (Tick)
system.mem_ctrl.dram.rank1.pwrStateTime::SREF            0                       # Time in different power states (Tick)
system.mem_ctrl.dram.rank1.pwrStateTime::PRE_PDN            0                       # Time in different power states (Tick)
system.mem_ctrl.dram.rank1.pwrStateTime::ACT            0                       # Time in different power states (Tick)
system.mem_ctrl.dram.rank1.pwrStateTime::ACT_PDN            0                       # Time in different power states (Tick)
system.mem_ctrl.power_state.pwrStateResidencyTicks::UNDEFINED   6685459200                       # Cumulative time (in ticks) in various power states (Tick)
system.membus.transDist::ReadResp               10162                       # Transaction distribution (Count)
system.membus.transDist::ReadExReq               7559                       # Transaction distribution (Count)
system.membus.transDist::ReadExResp              7559                       # Transaction distribution (Count)
system.membus.transDist::ReadSharedReq          10162                       # Transaction distribution (Count)
system.membus.pktCount_system.l3cache.mem_side_port::system.mem_ctrl.port        35442                       # Packet count per connected requestor and responder (Count)
system.membus.pktCount_system.l3cache.mem_side_port::total        35442                       # Packet count per connected requestor and responder (Count)
system.membus.pktCount::total                   35442                       # Packet count per connected requestor and responder (Count)
system.membus.pktSize_system.l3cache.mem_side_port::system.mem_ctrl.port      1134144                       # Cumulative packet size per connected requestor and responder (Byte)
system.membus.pktSize_system.l3cache.mem_side_port::total      1134144                       # Cumulative packet size per connected requestor and responder (Byte)
system.membus.pktSize::total                  1134144                       # Cumulative packet size per connected requestor and responder (Byte)
system.membus.snoops                                0                       # Total snoops (Count)
system.membus.snoopTraffic                          0                       # Total snoop traffic (Byte)
system.membus.snoopFanout::samples              17721                       # Request fanout histogram (Count)
system.membus.snoopFanout::mean                     0                       # Request fanout histogram (Count)
system.membus.snoopFanout::stdev                    0                       # Request fanout histogram (Count)
system.membus.snoopFanout::underflows               0      0.00%      0.00% # Request fanout histogram (Count)
system.membus.snoopFanout::0                    17721    100.00%    100.00% # Request fanout histogram (Count)
system.membus.snoopFanout::1                        0      0.00%    100.00% # Request fanout histogram (Count)
system.membus.snoopFanout::overflows                0      0.00%    100.00% # Request fanout histogram (Count)
system.membus.snoopFanout::min_value                0                       # Request fanout histogram (Count)
system.membus.snoopFanout::max_value                0                       # Request fanout histogram (Count)
system.membus.snoopFanout::total                17721                       # Request fanout histogram (Count)
system.membus.power_state.pwrStateResidencyTicks::UNDEFINED   6685459200                       # Cumulative time (in ticks) in various power states (Tick)
system.membus.snoop_filter.totRequests          17721                       # Total number of requests made to the snoop filter. (Count)
system.membus.snoop_filter.hitSingleRequests            0                       # Number of requests hitting in the snoop filter with a single holder of the requested data. (Count)
system.membus.snoop_filter.hitMultiRequests            0                       # Number of requests hitting in the snoop filter with multiple (>1) holders of the requested data. (Count)
system.membus.snoop_filter.totSnoops                0                       # Total number of snoops made to the snoop filter. (Count)
system.membus.snoop_filter.hitSingleSnoops            0                       # Number of snoops hitting in the snoop filter with a single holder of the requested data. (Count)
system.membus.snoop_filter.hitMultiSnoops            0                       # Number of snoops hitting in the snoop filter with multiple (>1) holders of the requested data. (Count)
system.workload.inst.arm                            0                       # number of arm instructions executed (Count)
system.workload.inst.quiesce                        0                       # number of quiesce instructions executed (Count)

---------- End Simulation Statistics   ----------
